abf
acfm
afm
amfm
bdf
cha
chr
compositefont
dfont
eot
etx
euf
f3f
ffil
fnt
fon
fot
gdr
gf
gxf
lwfn
mcf
mf
mxf
nftr
otf
pcf
pfa
pfb
pfm
pfr
pk
sfd
sfp
suit
tfm
ttc
tte
ttf
txf
vfb
vlw
vnf
woff
xfn
xft