0
00
001
32x
3ds
555
8ld
a26
a52
aao
abk
abk
abs
acf
acx
adt
agb
age3scn
ai
ain
air
alr
am1
an2
ar
arc
arch00
arena
arp
ars
ash
ash
asset
atm
b
bar
bar
bb3
bdae
bejeweled2deluxesavedgame
bf
bfg
bfm
bfs
bgl
bgz
bic
bic
bif
big
bik
bin
bin
bin
bin
biq
bix
blackhawkstriker2
blasterball3savedgame
blb
blp
blp
bls
blz
bmd
bmd
bme
bmg
bms
bmz
bng
bnk
bns
bnz
bookwormdeluxesavedgame
brlyt
brn
brres
brsar
bs1
bsa
bsb
bsp
bus
bwa
bzw
c4k
carc
cbf
cbh
cbs
cbv
cdp
cdp2
cem
cfg
cfge
cfr
cgf
cgz
chd
chesstitanssave-ms
chk
cht
civ5save
clt
cm
cmd
cme
cml
cns
col
comfycakessave-ms
con
cos
cpg
cpk
cpn
cps
cpx
craft
crs
crysisjmsf
crysispsf
cs
ct
ctm
ctx
cty
d2s
d3dbsp
dam
dat
dat
dat_mcr
dat_new
dat_old
day
dazip
db
ddb
ddt
def
dek
dek
dek
dem
desc
dif
diva
dl
dm2
dm3
dmb
dmo
dmo
dms
dm_68
dm_82
dm_83
dm_84
dn1
dn2
dn3
dnf
dnh
dns
dol
dpf
drm
ds
dsg
duc
dun
dv2
dwp
dxs
dz
dzip
e2gm
ecl
edat
eepf
egm
eix
elf
elm
enc
eng
epc
epk
erb
erf
erp
esg
esm
esm
esp
esp
ess
est_uax
exc
exs
far
fbrb
fc2map
fcm
fds
ff
ffd
fgd
fila
fl
fld
fml
fnta
fomod
forge
fos
fox
fpg
fpid
fpk
fpmb
fpmo
fpop
fpp
fps
frc
freecellsave-ms
frz
fs2
fsg
fsm
fssave
fst
ftl
fxt
g3x
galaxy
gam
game
game
gar
gb
gba
gbc
gbx
gc
gcf
gci
gcm
gcs
gct
gcz
gdw
gen
gg
gjd
glb
gme
gmres
gmv
gnp
god
goomod
gpf
gpf
gr2
grf
grf
grp
gs0
gsc
gsx
h2o
h3m
h4r
ham
heartssave-ms
hhsl
hi
hit
hmp
hog
honmod
hot
hpk
hps
hs
hwd
hwmap
hws
hxm
i3pack
ib2
ib3
ibro
ibt
idx0
idx255
ifp
img
imga
inp
inv
ipl
ips
isr
itk
itr
ivt
iwd
j2i
j2l
ja
jag
jam
jap
jg4
jigsaw
jrc
jrz
k2s
kag
kcl
kodu
kv6
kwreplay
l3d
laby
lang
ldb
ldw
lgl
lgp
lip
lip
ll
lmu
lock
lod
love
lpb
lrf
lsd
lsw
ltg
ltx
luxb
lvl
m2
mae
mahjongtitanssave-ms
manm
map
map
map
map
maplet
mas
masseffectprofile
masseffectsave
mato
max
maz
mca
mcgame
mclevel
mcr
mcr
mcworld
md
md
md2
md3
mdl
mdm
me2mod
mem
menu
mgl
mgx
mgx
mii
mine
minesweepersave-ms
mis
mis
mission
mix
mm6
mm7
mm8
mod
momma
mp2m
mp2s
mpk
mpm
mpq
mps
mpz
mrs
ms1
mul
mul
mus
n-gage
n3d
n3pmesh
n64
nam
narc
nav
naz
nbt
ncf
ncgr
nclr
nds
nes
nfo
nfs11save
ngage
ngc
ngp
nkm
nlelem
nlpx
nltrack
nml
nsbca
nsbmd
nsbtx
nscr
ntrk
nv
odf
ogz
omod
osk
osr
osu
osz
ovl
p2m
p2s
p3t
package
pak
pak
par
pat
pbn
pbp
pcc
pcd
pce
pcf
pck
pcsav
pcsxstate
peg
pegn
per
pgf
pgn
pgt
phn
phya
phz
pig
pig
pj
pk3
pk3
pk4
pkg
pkm
pl1
playmission
plf
pln
plr
plr
pnach
pod
pof
pog
pop
ppf
pqhero
prefs
prg
prison
prk
profile
properties
prx
ps2
ps2
psdl
pss
pssg
psu
psv
psx
psys
purblepairssave-ms
purbleshopsave-ms
puz
pvpf
pwf
pxp
pzl
pzp
qc
qdp
qvm
qwd
radq
ras
rbj
rbxl
rbxm
rda
rep
rep
res
rez
rfa
rfd
rfgs_pc
rfm
rgp
rgss2a
rim
rkp
rl
rle
rle
rom
rom
ros
rot
rp2
rpf
rpl
rpl
rpy
rpy
rpyc
rs2
run
rvdata
rvproj
rwd
rws
rxdata
s10
s2m
s2mh
s2z
s4m
s5x
sa1
sad
sav
sav
sav
sc2
sc2archive
sc2assets
sc2bank
sc2data
sc2ma
sc2map
sc2mod
sc2replay
sc2save
sc2scene
sc3
sc4
sc4
sc4desc
sc4lot
sc5
sc6
scea
scene
scf
schematic
scm
scm
scn
scn
scn
scs
scs
scx
scx
sd7
sdf
sdt
sdz
settings
sfar
sfb
sfc
sfc
sff
sfo
sfs
sga
sgaa
sgb
sgb
sgm
sgr
sh2
shader
shpa
sid
sii
sims2pack
sims3pack
sm
smc
smd
smo
smpd
sms
smzip
sna
snda
solitairesave-ms
sounds
sow
sp2
spb
spc
spidersolitairesave-ms
spk
spo
sprite
sps
sps
sqf
sqm
srk
srm
srt0
ssa
ssfsav
sst
sta
steamstart
stl
str
sts
stsg
stwm
sub
sud
sv5
sv5
sv6
sve
sve
svg
svs
svt
swc
swv
sww
syb
system
szs
taf
tap
tbm
td4
td6
tdb
ted
ted
tex0
tfr
tim
tja
tjc
tkr
tlk
toc
tor
tp4
trk
tsc
ttarch
ttm
tut
twt
u
uc
ucl
ucm
udk
ukx
umod
umx
unity
unity3d
unr
uop
updatr
upk
uqm
usa
usx
ut2
ut2mod
ut3
ut4mod
ut8
utc
utw
utx
uvx
uxx
v64
vb
vbf
vcm
vdf
vdf
vgi
vhv
vis
viv
viv
vmf
vmv
vmv
vmx
vob
vol
vp
vpk
vtf
vvvvvv
w3g
w3m
w3n
w3x
w3z
wad
wad
wagame
wal
wbfs
wbt
wdb
wdf
weap
wgf
whirld
wl1
wl6
wld
wld
wmf
wmo
wolfquest
world
world
wotreplay
wpl
wpm
wpt
wrpl
wrpl
wsc
wtd
wtf
wx
wz
wz
xan
xbe
xbsav
xds
xen
xex
xmb
xmb
xnb
xom
xp
xp2
xp3
xp4
xpd
xpk
xs
xtl
xvmconf
y3a
y3d
ycm
ydc
ydr
ydt
yfs
z2f
z64
z8
zds
zip
zmap
zoo
zs0
zs1
zs2
zs3
zs4
zs5
zs6
zs7
zs8
zs9
zsd
zst
ztd
ztmp
zzz